2024_89_CemigReconfigurationCases/1_AlimsCemig/TCSD210/TCSD210AnualA.dss
clear
new circuit.alimTCSD210 bus1=BMT125723581.1.2.3,basekv=13.800000000,pu=1.040000000,r1=0,x1=0.0001

Redirect ..\0PermRes\NovasCurvasTxt\CurvasDeCargaDU.dss
Redirect ..\0PermRes\Condutores.dss
Redirect TCSD210SegmentosMT.dss
Redirect TCSD210ChavesMT.dss
Redirect TCSD210Reguladores.dss
Redirect TCSD210Transformadores.dss
Redirect TCSD210SegmentosBT.dss
Redirect TCSD210Ramais.dss
Redirect TCSD210CargaMT_Nov.dss
Redirect TCSD210CargaBT_Nov.dss

new energymeter.carga element=line.TR1646890,terminal=1

Set voltagebases=[13.800000000 0.24 0.22]
CalcVoltageBases

! Solve mode=daily,hour=0,number=24,stepsize=1h

BusCoords TCSD210CoordMT.csv