2024_89_CemigReconfigurationCases/1_AlimsCemig/TCSD210/TCSD210SegmentosMT.dss
new line.TR12153409 bus1=BMT164668389.2,bus2=BMT8749193B.2,Phases=1,Linecode=CABA06_3_1,Length=0.034942000,Units=km
new line.TR12153410 bus1=BMT8749193B.2,bus2=BMT8749194B.2,Phases=1,Linecode=CABA06_3_1,Length=0.053472000,Units=km
new line.TR12153411 bus1=BMT8749194B.2,bus2=BMT8749195B.2,Phases=1,Linecode=CABA06_3_1,Length=0.053472000,Units=km
new line.TR12153412 bus1=BMT8749195B.2,bus2=BMT164668390.2,Phases=1,Linecode=CABA06_3_1,Length=0.053872000,Units=km
new line.TR12251952 bus1=BMT172749081.2,bus2=BMT8853329B.2,Phases=1,Linecode=CABA06_3_1,Length=0.044571000,Units=km
new line.TR12251953 bus1=BMT8853329B.2,bus2=BMT8853331B.2,Phases=1,Linecode=CABA06_3_1,Length=0.044062000,Units=km
new line.TR12251956 bus1=BMT8853331B.2,bus2=BMT172749083.2,Phases=1,Linecode=CABA06_3_1,Length=0.044028000,Units=km
new line.TR12251959 bus1=BMT172749080.2,bus2=BMT8853363B.2,Phases=1,Linecode=CABA06_3_1,Length=0.053256000,Units=km
new line.TR12251962 bus1=BMT8853363B.2,bus2=BMT8853368B.2,Phases=1,Linecode=CABA06_3_1,Length=0.045898000,Units=km
new line.TR12251963 bus1=BMT8853368B.2,bus2=BMT8853371B.2,Phases=1,Linecode=CABA06_3_1,Length=0.045559000,Units=km
new line.TR12251968 bus1=BMT172749078.2,bus2=BMT8853371B.2,Phases=1,Linecode=CABA06_3_1,Length=0.036263000,Units=km
new line.TR12252488 bus1=BMT160797435.3,bus2=BMT8854040B.3,Phases=1,Linecode=CAB202_3_1,Length=0.105890000,Units=km
new line.TR12252491 bus1=BMT8854040B.3,bus2=BMT8854041B.3,Phases=1,Linecode=CAB202_3_1,Length=0.412978000,Units=km
new line.TR12252493 bus1=BMT8854041B.3,bus2=BMT8854050B.3,Phases=1,Linecode=CAB202_3_1,Length=0.046116000,Units=km
new line.TR12252496 bus1=BMT8854050B.3,bus2=BMT160797436.3,Phases=1,Linecode=CAB202_3_1,Length=0.137111000,Units=km
new line.TR12281526 bus1=BMT172473427.2,bus2=BMT8884121B.2,Phases=1,Linecode=CAB202_3_1,Length=0.129332000,Units=km
new line.TR12281527 bus1=BMT8884121B.2,bus2=BMT172473430.2,Phases=1,Linecode=CAB202_3_1,Length=0.079340000,Units=km
new line.TR12322066 bus1=BMT164547161.2,bus2=BMT164547162.2,Phases=1,Linecode=CAB202_3_1,Length=0.269368000,Units=km
new line.TR12322067 bus1=BMT164547162.2,bus2=BMT164547163.2,Phases=1,Linecode=CAB202_3_1,Length=0.332938000,Units=km
new line.TR12416168 bus1=BMT166127205.1,bus2=BMT166127206.1,Phases=1,Linecode=CABA06_3_1,Length=0.040016000,Units=km
new line.TR12416173 bus1=BMT166127205.1.2.3,bus2=BMT3984666B.1.2.3,Phases=3,Linecode=CABA06_3_3,Length=0.040016000,Units=km
new line.TR12416174 bus1=BMT3984666B.1.2.3,bus2=BMT3984673B.1.2.3,Phases=3,Linecode=CABA06_3_3,Length=0.036028000,Units=km
new line.TR12416176 bus1=BMT3984673B.1.2.3,bus2=BMT3984561B.1.2.3,Phases=3,Linecode=CABA06_3_3,Length=0.011185000,Units=km
new line.TR12416177 bus1=BMT3984561B.1.2.3,bus2=BMT3984554B.1.2.3,Phases=3,Linecode=CABA06_3_3,Length=0.024010000,Units=km
new line.TR12416178 bus1=BMT3984554B.1.2.3,bus2=BMT3984547B.1.2.3,Phases=3,Linecode=CABA06_3_3,Length=0.023009000,Units=km
new line.TR12416179 bus1=BMT3984547B.1.2.3,bus2=BMT3984540B.1.2.3,Phases=3,Linecode=CABA06_3_3,Length=0.023009000,Units=km
new line.TR12416180 bus1=BMT3984540B.1.2.3,bus2=BMT166127207.1.2.3,Phases=3,Linecode=CABA06_3_3,Length=0.024010000,Units=km
new line.TR12417518 bus1=BMT171155576.2,bus2=BMT171155577.2,Phases=1,Linecode=CAB103_3_1,Length=0.079340000,Units=km
new line.TR12517328 bus1=BMT168913439.1.2.3,bus2=BMT9125324B.1.2.3,Phases=3,Linecode=CAB202_3_3,Length=0.119385000,Units=km
new line.TR12517408 bus1=BMT168904764.1,bus2=BMT9125315B.1,Phases=1,Linecode=CAB202_3_1,Length=0.169657000,Units=km
new line.TR12517447 bus1=BMT9125291B.1,bus2=BMT9125293B.1,Phases=1,Linecode=CAB202_3_1,Length=0.125179000,Units=km
new line.TR12517448 bus1=BMT9125293B.1,bus2=BMT9125294B.1,Phases=1,Linecode=CAB202_3_1,Length=0.121062000,Units=km
new line.TR12517450 bus1=BMT9125294B.1,bus2=BMT9125296B.1,Phases=1,Linecode=CAB202_3_1,Length=0.125275000,Units=km
new line.TR12517452 bus1=BMT9125296B.1,bus2=BMT9125297B.1,Phases=1,Linecode=CAB202_3_1,Length=0.103981000,Units=km
new line.TR12517453 bus1=BMT9125297B.1,bus2=BMT9125298B.1,Phases=1,Linecode=CAB202_3_1,Length=0.104963000,Units=km
new line.TR12517454 bus1=BMT9125298B.1,bus2=BMT9125299B.1,Phases=1,Linecode=CAB202_3_1,Length=0.272118000,Units=km
new line.TR12517471 bus1=BMT9125308B.1,bus2=BMT9125309B.1,Phases=1,Linecode=CAB202_3_1,Length=0.149989000,Units=km
new line.TR12517472 bus1=BMT9125309B.1,bus2=BMT9125306B.1,Phases=1,Linecode=CAB202_3_1,Length=0.178263000,Units=km
new line.TR12520562 bus1=BMT163340178.1,bus2=BMT9128385B.1,Phases=1,Linecode=CAB202_3_1,Length=0.090721000,Units=km
new line.TR12520563 bus1=BMT9128385B.1,bus2=BMT163340179.1,Phases=1,Linecode=CAB202_3_1,Length=0.090721000,Units=km
new line.TR12520650 bus1=BMT172637687.2,bus2=BMT172637690.2,Phases=1,Linecode=CAB202_3_1,Length=0.292005000,Units=km
new line.TR12552413 bus1=BMT164654627.1,bus2=BMT9161273B.1,Phases=1,Linecode=CAB202_3_1,Length=0.198292000,Units=km
new line.TR12552414 bus1=BMT9161273B.1,bus2=BMT164654629.1,Phases=1,Linecode=CAB202_3_1,Length=0.049517000,Units=km
new line.TR12552806 bus1=BMT164668353.2,bus2=BMT164668355.2,Phases=1,Linecode=CAB202_3_1,Length=0.346433000,Units=km
new line.TR12553431 bus1=BMT164809055.3,bus2=BMT164809058.3,Phases=1,Linecode=CAB103_3_1,Length=0.074661000,Units=km
new line.TR12554036 bus1=BMT164711930.1,bus2=BMT164711932.1,Phases=1,Linecode=CAB202_3_1,Length=0.155343000,Units=km
new line.TR12554298 bus1=BMT164876623.3,bus2=BMT9162946B.3,Phases=1,Linecode=CAB202_3_1,Length=0.325655000,Units=km
new line.TR12554350 bus1=BMT9162946B.3,bus2=BMT164876624.3,Phases=1,Linecode=CAB202_3_1,Length=0.059057000,Units=km
new line.TR12554351 bus1=BMT164876624.3,bus2=BMT164876625.3,Phases=1,Linecode=CAB103_3_1,Length=0.010054000,Units=km
new line.TR12556396 bus1=BMT164876624.3,bus2=BMT164876626.3,Phases=1,Linecode=CAB202_3_1,Length=0.038199000,Units=km
new line.TR12581312 bus1=BMT165805574.2,bus2=BMT165805583.2,Phases=1,Linecode=CAB103_3_1,Length=0.013422000,Units=km
new line.TR12582290 bus1=BMT172201391.2,bus2=BMT172201394.2,Phases=1,Linecode=CAB202_3_1,Length=0.162988000,Units=km
new line.TR12782219 bus1=BMT172463362.2,bus2=BMT172463388.2,Phases=1,Linecode=CAB202_3_1,Length=0.114735000,Units=km
new line.TR12782220 bus1=BMT172463388.2,bus2=BMT172463389.2,Phases=1,Linecode=CAB202_3_1,Length=0.014219000,Units=km
new line.TR12782222 bus1=BMT172463388.2,bus2=BMT9384081B.2,Phases=1,Linecode=CAB202_3_1,Length=0.146069000,Units=km
new line.TR12782224 bus1=BMT9384081B.2,bus2=BMT172463390.2,Phases=1,Linecode=CAB202_3_1,Length=0.078267000,Units=km
new line.TR12116548 bus1=BMT172201348.2,bus2=BMT172201350.2,Phases=1,Linecode=CAB103_3_1,Length=0.032586000,Units=km
new line.TR12116549 bus1=BMT172201350.2,bus2=BMT172201351.2,Phases=1,Linecode=CAB202_3_1,Length=0.370793000,Units=km
new line.TR12154595 bus1=BMT8630138B.3,bus2=BMT8750321B.3,Phases=1,Linecode=CABA06_3_1,Length=0.030426000,Units=km
new line.TR12154596 bus1=BMT8630124B.3,bus2=BMT8750321B.3,Phases=1,Linecode=CABA06_3_1,Length=0.029286000,Units=km
new line.TR12154625 bus1=BMT165026429.3,bus2=BMT8750332B.3,Phases=1,Linecode=CAB202_3_1,Length=0.047453000,Units=km
new line.TR12154626 bus1=BMT8750332B.3,bus2=BMT165026431.3,Phases=1,Linecode=CAB202_3_1,Length=0.034072000,Units=km
new line.TR12192027 bus1=BMT165042341.1,bus2=BMT165042345.1,Phases=1,Linecode=CAB103_3_1,Length=0.017036000,Units=km
new line.TR12287636 bus1=BMT154387771.2,bus2=BMT154387773.2,Phases=1,Linecode=CAB202_3_1,Length=0.017095000,Units=km
new line.TR12287637 bus1=BMT154387773.2,bus2=BMT154387774.2,Phases=1,Linecode=CAB202_3_1,Length=0.231857000,Units=km
new line.TR12287656 bus1=BMT154387773.2,bus2=BMT154387775.2,Phases=1,Linecode=CAB103_3_1,Length=0.055058000,Units=km
new line.TR12324248 bus1=BMT161466021.1.2.3,bus2=BMT161466023.1.2.3,Phases=3,Linecode=CABA06_3_3,Length=0.035917000,Units=km
new line.TR12324652 bus1=BMT157767016.1.2.3,bus2=BMT157767017.1.2.3,Phases=3,Linecode=CAB202_3_3,Length=0.000501000,Units=km
new line.TR12324655 bus1=BMT157767017.1.2.3,bus2=BMT157767018.1.2.3,Phases=3,Linecode=CAB609_3_3,Length=0.009059000,Units=km
new line.TR12324657 bus1=BMT157767018.1.2.3,bus2=BMT157767019.1.2.3,Phases=3,Linecode=CAB609_5_3,Length=0.010054000,Units=km
new line.TR12324661 bus1=BMT157767019.1.2.3,bus2=BMT157767020.1.2.3,Phases=3,Linecode=CAB609_5_3,Length=0.008004000,Units=km
new line.TR12391882 bus1=BMT168374969.1,bus2=BMT168374970.1,Phases=1,Linecode=CAB202_3_1,Length=0.055057000,Units=km
new line.TR12391883 bus1=BMT168374970.1,bus2=BMT168374971.1,Phases=1,Linecode=CAB202_3_1,Length=0.238605000,Units=km
new line.TR12391884 bus1=BMT168374970.1,bus2=BMT168374972.1,Phases=1,Linecode=CAB103_3_1,Length=0.052793000,Units=km
new line.TR12587223 bus1=BMT166027398.2,bus2=BMT166027400.2,Phases=1,Linecode=CAB103_3_1,Length=0.074359000,Units=km
new line.TR12742388 bus1=BMT171155544.2,bus2=BMT171155546.2,Phases=1,Linecode=CAB103_3_1,Length=0.018796000,Units=km
new line.TR12774511 bus1=BMT172201427.2,bus2=BMT172201429.2,Phases=1,Linecode=CAB202_3_1,Length=0.016162000,Units=km
new line.TR12774512 bus1=BMT172201429.2,bus2=BMT172201430.2,Phases=1,Linecode=CAB202_3_1,Length=0.082378000,Units=km
new line.TR12774513 bus1=BMT172201429.2,bus2=BMT9377987B.2,Phases=1,Linecode=CAB202_3_1,Length=0.250425000,Units=km
new line.TR12774514 bus1=BMT9377987B.2,bus2=BMT172201431.2,Phases=1,Linecode=CAB202_3_1,Length=0.095051000,Units=km
new line.TR12799561 bus1=BMT173107071.3,bus2=BMT9399057B.3,Phases=1,Linecode=CAB202_3_1,Length=0.092475000,Units=km
new line.TR12799566 bus1=BMT9399057B.3,bus2=BMT9399060B.3,Phases=1,Linecode=CAB202_3_1,Length=0.048434000,Units=km
new line.TR12799569 bus1=BMT9399060B.3,bus2=BMT173107072.3,Phases=1,Linecode=CAB202_3_1,Length=0.043583000,Units=km
new line.TR1650152 bus1=BMT172463362.2,bus2=BMT172463385.2,Phases=1,Linecode=CAB202_3_1,Length=0.109243000,Units=km
new line.TR1650159 bus1=BMT172463362.2,bus2=BMT3566787B.2,Phases=1,Linecode=CAB202_3_1,Length=0.273343000,Units=km
new line.TR1650166 bus1=BMT172463363.2,bus2=BMT172463364.2,Phases=1,Linecode=CAB202_3_1,Length=0.216531000,Units=km
new line.TR1650173 bus1=BMT172463363.2,bus2=BMT3566822B.2,Phases=1,Linecode=CAB202_3_1,Length=0.372368000,Units=km
new line.TR1650180 bus1=BMT2374540B.2,bus2=BMT3566941B.2,Phases=1,Linecode=CAB202_3_1,Length=0.121310000,Units=km
new line.TR1650187 bus1=BMT172463365.2,bus2=BMT172463366.2,Phases=1,Linecode=CAB202_3_1,Length=0.315134000,Units=km
new line.TR1650194 bus1=BMT172463365.2,bus2=BMT172463367.2,Phases=1,Linecode=CAB202_3_1,Length=0.106342000,Units=km
new line.TR1650201 bus1=BMT172463367.2,bus2=BMT172463368.2,Phases=1,Linecode=CAB103_3_1,Length=0.045017000,Units=km
new line.TR1650208 bus1=BMT172463367.2,bus2=BMT172463369.2,Phases=1,Linecode=CAB202_3_1,Length=0.308986000,Units=km
new line.TR1650215 bus1=BMT172463369.2,bus2=BMT172463370.2,Phases=1,Linecode=CAB202_3_1,Length=0.094376000,Units=km
new line.TR1650222 bus1=BMT172463369.2,bus2=BMT172463371.2,Phases=1,Linecode=CAB202_3_1,Length=0.219264000,Units=km
new line.TR1650229 bus1=BMT172463370.2,bus2=BMT172463378.2,Phases=1,Linecode=CAB202_3_1,Length=0.100038000,Units=km
new line.TR1650236 bus1=BMT172463370.2,bus2=BMT172463379.2,Phases=1,Linecode=CAB103_3_1,Length=0.040016000,Units=km
new line.TR1650243 bus1=BMT172463370.2,bus2=BMT2374603B.2,Phases=1,Linecode=CAB202_3_1,Length=0.148717000,Units=km
new line.TR1650250 bus1=BMT172463371.2,bus2=BMT172463372.2,Phases=1,Linecode=CAB202_3_1,Length=0.282171000,Units=km
new line.TR1650257 bus1=BMT172463371.2,bus2=BMT3567200B.2,Phases=1,Linecode=CAB202_3_1,Length=0.071048000,Units=km
new line.TR1650264 bus1=BMT172463373.2,bus2=BMT172463374.2,Phases=1,Linecode=CAB103_3_1,Length=0.041247000,Units=km
new line.TR1650271 bus1=BMT172463372.2,bus2=BMT3567263B.2,Phases=1,Linecode=CAB103_3_1,Length=0.079642000,Units=km
new line.TR1650278 bus1=BMT172463372.2,bus2=BMT3567326B.2,Phases=1,Linecode=CAB202_3_1,Length=0.066674000,Units=km
new line.TR1650285 bus1=BMT172463376.2,bus2=BMT172463377.2,Phases=1,Linecode=CAB103_3_1,Length=0.033554000,Units=km
new line.TR1650292 bus1=BMT2374603B.2,bus2=BMT172463380.2,Phases=1,Linecode=CAB202_3_1,Length=0.210318000,Units=km
new line.TR1650299 bus1=BMT172463380.2,bus2=BMT172463381.2,Phases=1,Linecode=CAB202_3_1,Length=0.195331000,Units=km
new line.TR1650306 bus1=BMT172463380.2,bus2=BMT3567109B.2,Phases=1,Linecode=CAB202_3_1,Length=0.069805000,Units=km
new line.TR1650313 bus1=BMT172201342.2,bus2=BMT172201343.2,Phases=1,Linecode=CAB202_3_1,Length=0.107744000,Units=km
new line.TR1650320 bus1=BMT172201342.2,bus2=BMT172201344.2,Phases=1,Linecode=CAB202_3_1,Length=0.072139000,Units=km
new line.TR1650327 bus1=BMT172201344.2,bus2=BMT172201345.2,Phases=1,Linecode=CAB202_3_1,Length=0.103504000,Units=km
new line.TR1650334 bus1=BMT172201344.2,bus2=BMT2975483B.2,Phases=1,Linecode=CAB202_3_1,Length=0.386151000,Units=km
new line.TR1650341 bus1=BMT172201363.2,bus2=BMT172201367.2,Phases=1,Linecode=CAB103_3_1,Length=0.058332000,Units=km
new line.TR1650348 bus1=BMT172201363.2,bus2=BMT3565611B.2,Phases=1,Linecode=CAB202_3_1,Length=0.097454000,Units=km
new line.TR12298091 bus1=BMT172637675.2,bus2=BMT172637678.2,Phases=1,Linecode=CAB202_3_1,Length=0.063813000,Units=km
new line.TR12298092 bus1=BMT172637678.2,bus2=BMT172637679.2,Phases=1,Linecode=CAB202_3_1,Length=0.065141000,Units=km
new line.TR12298095 bus1=BMT172637678.2,bus2=BMT172637680.2,Phases=1,Linecode=CAB202_3_1,Length=0.288889000,Units=km
new line.TR12336172 bus1=BMT3474891B.1,bus2=BMT8938424B.1,Phases=1,Linecode=CAB202_3_1,Length=0.074493000,Units=km
new line.TR12336173 bus1=BMT8938424B.1,bus2=BMT169666544.1,Phases=1,Linecode=CAB202_3_1,Length=0.058546000,Units=km
new line.TR12336205 bus1=BMT169666544.1,bus2=BMT8938454B.1,Phases=1,Linecode=CAB103_3_1,Length=0.080311000,Units=km
new line.TR12336207 bus1=BMT8938454B.1,bus2=BMT8938455B.1,Phases=1,Linecode=CAB103_3_1,Length=0.062120000,Units=km
new line.TR12336208 bus1=BMT8938455B.1,bus2=BMT169666546.1,Phases=1,Linecode=CAB103_3_1,Length=0.055600000,Units=km
new line.TR12336999 bus1=BMT160183192.1.2.3,bus2=BMT8939107B.1.2.3,Phases=3,Linecode=CABA06_3_3,Length=0.032463000,Units=km
new line.TR12337000 bus1=BMT8939107B.1.2.3,bus2=BMT8939108B.1.2.3,Phases=3,Linecode=CABA06_3_3,Length=0.035623000,Units=km
new line.TR12337001 bus1=BMT8939108B.1.2.3,bus2=BMT160183193.1.2.3,Phases=3,Linecode=CABA06_3_3,Length=0.034423000,Units=km
new line.TR12337002 bus1=BMT160183193.1.2.3,bus2=BMT160183194.1.2.3,Phases=3,Linecode=CABA06_3_3,Length=0.034842000,Units=km
new line.TR12337012 bus1=BMT160183193.1.2.3,bus2=BMT8939113B.1.2.3,Phases=3,Linecode=CABA06_3_3,Length=0.018796000,Units=km
new line.TR12337013 bus1=BMT8939113B.1.2.3,bus2=BMT160183195.1.2.3,Phases=3,Linecode=CABA06_3_3,Length=0.027214000,Units=km
new line.TR12337014 bus1=BMT160183195.1.2.3,bus2=BMT8939115B.1.2.3,Phases=3,Linecode=CABA06_3_3,Length=0.025010000,Units=km
new line.TR12337015 bus1=BMT8939115B.1.2.3,bus2=BMT8939117B.1.2.3,Phases=3,Linecode=CABA06_3_3,Length=0.030012000,Units=km
new line.TR12337016 bus1=BMT8939117B.1.2.3,bus2=BMT8939121B.1.2.3,Phases=3,Linecode=CABA06_3_3,Length=0.025010000,Units=km
new line.TR12337017 bus1=BMT8939121B.1.2.3,bus2=BMT160183196.1.2.3,Phases=3,Linecode=CABA06_3_3,Length=0.025010000,Units=km
new line.TR12375532 bus1=BMT164547162.2,bus2=BMT164547164.2,Phases=1,Linecode=CAB203_3_1,Length=0.251494000,Units=km
new line.TR12545609 bus1=BMT172567043.1,bus2=BMT1534456B.1,Phases=1,Linecode=CAB103_3_1,Length=0.026430000,Units=km
new line.TR12545611 bus1=BMT1534456B.1,bus2=BMT1534463B.1,Phases=1,Linecode=CAB103_3_1,Length=0.034219000,Units=km
new line.TR12545613 bus1=BMT1534463B.1,bus2=BMT172567045.1,Phases=1,Linecode=CAB103_3_1,Length=0.035861000,Units=km
new line.TR12545894 bus1=BMT172567045.1,bus2=BMT172567046.1,Phases=1,Linecode=CAB103_3_1,Length=0.104102000,Units=km
new line.TR12545898 bus1=BMT172567046.1,bus2=BMT172567047.1,Phases=1,Linecode=CAB202_3_1,Length=0.099240000,Units=km
new line.TR12570743 bus1=BMT172910735.1,bus2=BMT172910738.1,Phases=1,Linecode=CAB202_3_1,Length=0.042737000,Units=km
new line.TR12570744 bus1=BMT172910738.1,bus2=BMT172910739.1,Phases=1,Linecode=CAB202_3_1,Length=0.095310000,Units=km
new line.TR12570763 bus1=BMT172910738.1,bus2=BMT172910740.1,Phases=1,Linecode=CAB202_3_1,Length=0.088397000,Units=km
new line.TR12730408 bus1=BMT172910749.1,bus2=BMT172910751.1,Phases=1,Linecode=CAB202_3_1,Length=0.096727000,Units=km
new line.TR12789587 bus1=BMT172910753.1,bus2=BMT172910755.1,Phases=1,Linecode=CAB202_3_1,Length=0.128505000,Units=km
new line.TR12789588 bus1=BMT172910755.1,bus2=BMT172910756.1,Phases=1,Linecode=CAB103_3_1,Length=0.028472000,Units=km
new line.TR12789990 bus1=BMT172738941.1,bus2=BMT172738944.1,Phases=1,Linecode=CAB202_3_1,Length=0.099804000,Units=km
new line.TR12790257 bus1=BMT172749081.2,bus2=BMT172749084.2,Phases=1,Linecode=CAB103_3_1,Length=0.034727000,Units=km
new line.TR12792794 bus1=BMT172827917.2,bus2=BMT172827919.2,Phases=1,Linecode=CAB202_3_1,Length=0.004245000,Units=km
new line.TR12792795 bus1=BMT172827920.2,bus2=BMT3440724B.2,Phases=1,Linecode=CAB202_3_1,Length=0.094884000,Units=km
new line.TR1655444 bus1=BMT162494200.3,bus2=BMT3568432B.3,Phases=1,Linecode=CAB202_3_1,Length=0.061318000,Units=km
new line.TR1655451 bus1=BMT162494203.3,bus2=BMT162494206.3,Phases=1,Linecode=CAB202_3_1,Length=0.081426000,Units=km
new line.TR1655458 bus1=BMT162494203.3,bus2=BMT3568579B.3,Phases=1,Linecode=CAB202_3_1,Length=0.141409000,Units=km
new line.TR1655465 bus1=BMT162494207.3,bus2=BMT162494208.3,Phases=1,Linecode=CAB103_3_1,Length=0.042737000,Units=km
new line.TR1655472 bus1=BMT162494207.3,bus2=BMT3568677B.3,Phases=1,Linecode=CAB202_3_1,Length=0.010202000,Units=km
new line.TR1655479 bus1=BMT162494206.3,bus2=BMT162494210.3,Phases=1,Linecode=CAB202_3_1,Length=0.155678000,Units=km
new line.TR1655486 bus1=BMT162494206.3,bus2=BMT3568775B.3,Phases=1,Linecode=CAB202_3_1,Length=0.146812000,Units=km
new line.TR1655493 bus1=BMT162494210.3,bus2=BMT162494213.3,Phases=1,Linecode=CAB103_3_1,Length=0.090035000,Units=km
new line.TR1655500 bus1=BMT162494211.3,bus2=BMT162494212.3,Phases=1,Linecode=CAB103_3_1,Length=0.035369000,Units=km
new line.TR1655514 bus1=BMT134894701.3,bus2=BMT134894708.3,Phases=1,Linecode=CAB103_3_1,Length=0.073853000,Units=km
new line.TR1655521 bus1=BMT134894715.3,bus2=BMT134894722.3,Phases=1,Linecode=CAB202_3_1,Length=0.235463000,Units=km
new line.TR1655535 bus1=BMT163141108.3,bus2=BMT163141109.3,Phases=1,Linecode=CAB103_3_1,Length=0.058332000,Units=km
new line.TR1655542 bus1=BMT163141108.3,bus2=BMT3882270B.3,Phases=1,Linecode=CAB202_3_1,Length=0.075216000,Units=km
new line.TR1655549 bus1=BMT164809046.3,bus2=BMT164809047.3,Phases=1,Linecode=CAB103_3_1,Length=0.040016000,Units=km
new line.TR1655556 bus1=BMT164809046.3,bus2=BMT164809048.3,Phases=1,Linecode=CAB202_3_1,Length=0.325702000,Units=km
new line.TR1655563 bus1=BMT164809048.3,bus2=BMT164809049.3,Phases=1,Linecode=CAB103_3_1,Length=0.063270000,Units=km
new line.TR1655570 bus1=BMT164809048.3,bus2=BMT164809050.3,Phases=1,Linecode=CAB202_3_1,Length=0.155717000,Units=km
new line.TR1655577 bus1=BMT164809050.3,bus2=BMT164809051.3,Phases=1,Linecode=CAB202_3_1,Length=0.095163000,Units=km
new line.TR1655584 bus1=BMT164809050.3,bus2=BMT2945201B.3,Phases=1,Linecode=CAB202_3_1,Length=0.109244000,Units=km
new line.TR1655591 bus1=BMT164809051.3,bus2=BMT164809053.3,Phases=1,Linecode=CAB202_3_1,Length=0.095604000,Units=km
new line.TR1655598 bus1=BMT164809051.3,bus2=BMT3501715B.3,Phases=1,Linecode=CAB202_3_1,Length=0.076430000,Units=km
new line.TR1650355 bus1=BMT172201346.2,bus2=BMT172201347.2,Phases=1,Linecode=CAB202_3_1,Length=0.063270000,Units=km
new line.TR1650362 bus1=BMT172201346.2,bus2=BMT2374652B.2,Phases=1,Linecode=CAB202_3_1,Length=0.255096000,Units=km
new line.TR1650369 bus1=BMT2374652B.2,bus2=BMT172201348.2,Phases=1,Linecode=CAB202_3_1,Length=0.327576000,Units=km
new line.TR1650376 bus1=BMT172201348.2,bus2=BMT172201349.2,Phases=1,Linecode=CAB202_3_1,Length=0.182071000,Units=km
new line.TR1650383 bus1=BMT172201349.2,bus2=BMT172201352.2,Phases=1,Linecode=CAB202_3_1,Length=0.200138000,Units=km
new line.TR1650390 bus1=BMT172201349.2,bus2=BMT3566192B.2,Phases=1,Linecode=CAB103_3_1,Length=0.070241000,Units=km
new line.TR1650397 bus1=BMT172201352.2,bus2=BMT172201354.2,Phases=1,Linecode=CAB103_3_1,Length=0.051020000,Units=km
new line.TR1650404 bus1=BMT172201352.2,bus2=BMT2374680B.2,Phases=1,Linecode=CAB202_3_1,Length=0.070738000,Units=km
new line.TR1650411 bus1=BMT2374680B.2,bus2=BMT3566234B.2,Phases=1,Linecode=CAB202_3_1,Length=0.070355000,Units=km
new line.TR1650418 bus1=BMT172201368.2,bus2=BMT172201369.2,Phases=1,Linecode=CAB202_3_1,Length=0.125047000,Units=km
new line.TR1650425 bus1=BMT172201368.2,bus2=BMT172201370.2,Phases=1,Linecode=CAB202_3_1,Length=0.296127000,Units=km
new line.TR1650432 bus1=BMT172201368.2,bus2=BMT2834867B.2,Phases=1,Linecode=CAB103_3_1,Length=0.036070000,Units=km
new line.TR1650439 bus1=BMT172201369.2,bus2=BMT172201437.2,Phases=1,Linecode=CAB202_3_1,Length=0.251739000,Units=km
new line.TR1650446 bus1=BMT172201369.2,bus2=BMT172201438.2,Phases=1,Linecode=CAB202_3_1,Length=0.095561000,Units=km
new line.TR1650453 bus1=BMT172201369.2,bus2=BMT2374911B.2,Phases=1,Linecode=CAB202_3_1,Length=0.122112000,Units=km
new line.TR1650460 bus1=BMT172201370.2,bus2=BMT172201372.2,Phases=1,Linecode=CAB102_3_1,Length=0.069489000,Units=km
new line.TR1650467 bus1=BMT172201370.2,bus2=BMT172201373.2,Phases=1,Linecode=CAB202_3_1,Length=0.138345000,Units=km
new line.TR1650474 bus1=BMT172201373.2,bus2=BMT172201374.2,Phases=1,Linecode=CAB202_3_1,Length=0.152373000,Units=km
new line.TR1650481 bus1=BMT172201373.2,bus2=BMT172201375.2,Phases=1,Linecode=CAB202_3_1,Length=0.121083000,Units=km
new line.TR1650488 bus1=BMT172201376.2,bus2=BMT172201378.2,Phases=1,Linecode=CAB202_3_1,Length=0.097119000,Units=km
new line.TR1650495 bus1=BMT172201376.2,bus2=BMT172201379.2,Phases=1,Linecode=CAB202_3_1,Length=0.121083000,Units=km
new line.TR1650502 bus1=BMT172201380.2,bus2=BMT172201382.2,Phases=1,Linecode=CAB103_3_1,Length=0.047188000,Units=km
new line.TR1650509 bus1=BMT172201380.2,bus2=BMT172201383.2,Phases=1,Linecode=CAB202_3_1,Length=0.076351000,Units=km
new line.TR1650516 bus1=BMT172201380.2,bus2=BMT172201384.2,Phases=1,Linecode=CAB202_3_1,Length=0.287901000,Units=km
new line.TR1650523 bus1=BMT172201380.2,bus2=BMT172201385.2,Phases=1,Linecode=CAB202_3_1,Length=0.063270000,Units=km
new line.TR1650530 bus1=BMT172201384.2,bus2=BMT172201389.2,Phases=1,Linecode=CAB202_3_1,Length=0.158884000,Units=km
new line.TR1650537 bus1=BMT172201384.2,bus2=BMT172201390.2,Phases=1,Linecode=CAB202_3_1,Length=0.020624000,Units=km
new line.TR1650544 bus1=BMT172201384.2,bus2=BMT172201391.2,Phases=1,Linecode=CAB202_3_1,Length=0.353969000,Units=km
new line.TR1650551 bus1=BMT172201385.2,bus2=BMT172201386.2,Phases=1,Linecode=CAB202_3_1,Length=0.082493000,Units=km
new line.TR1650558 bus1=BMT172201385.2,bus2=BMT2374743B.2,Phases=1,Linecode=CAB202_3_1,Length=0.458102000,Units=km
new line.TR1650565 bus1=BMT172201385.2,bus2=BMT3487050B.2,Phases=1,Linecode=CAB202_3_1,Length=0.011185000,Units=km
new line.TR1650572 bus1=BMT2374743B.2,bus2=BMT172201387.2,Phases=1,Linecode=CAB202_3_1,Length=0.075029000,Units=km
new line.TR1650579 bus1=BMT172201391.2,bus2=BMT3487253B.2,Phases=1,Linecode=CAB202_3_1,Length=0.078776000,Units=km
...
