2024_89_CemigReconfigurationCases/1_AlimsCemig/TCSD210/TCSD210ChavesMT.dss
new line.CTR100310 bus1=BMT125736790.3,bus2=BMT148786958.3,Phases=1,LineCode=tieSwitch1,Length=0.001,Units=km,switch=T !numEQ 84141
new line.CTR11406145 bus1=BMT2389066831.1.2.3,bus2=BMT2011406191.1.2.3,Phases=3,LineCode=tieSwitch,Length=0.001,Units=km,switch=T !numEQ 
new line.CTR11406159 bus1=BMT2011405074.1.2.3,bus2=BMT2389066831.1.2.3,Phases=3,LineCode=tieSwitch,Length=0.001,Units=km,switch=T !numEQ 
new line.CTR12894 bus1=BMT125730490.1,bus2=BMT168374987.1,Phases=1,LineCode=tieSwitch1,Length=0.001,Units=km,switch=T !numEQ 128355
new line.CTR143766 bus1=BMT125736944.1.2.3,bus2=BMT169296706.1.2.3,Phases=3,LineCode=tieSwitch,Length=0.001,Units=km,switch=T !numEQ 79930
new line.CTR143801 bus1=BMT125724169.1,bus2=BMT125733563.1,Phases=1,LineCode=tieSwitch1,Length=0.001,Units=km,switch=T !numEQ 91218
new line.CTR143878 bus1=BMT125723637.2,bus2=BMT171490947.2,Phases=1,LineCode=tieSwitch1,Length=0.001,Units=km,switch=T !numEQ 84421
new line.CTR143906 bus1=BMT125723840.1.2.3,bus2=BMT155707088.1.2.3,Phases=3,LineCode=tieSwitch,Length=0.001,Units=km,switch=T !numEQ 84747
new line.CTR143913 bus1=BMT125724050.3,bus2=BMT158819498.3,Phases=1,LineCode=tieSwitch1,Length=0.001,Units=km,switch=T !numEQ 84100
new line.CTR143920 bus1=BMT125732135.2,bus2=BMT172463350.2,Phases=1,LineCode=tieSwitch1,Length=0.001,Units=km,switch=T !numEQ 85641
new line.CTR143941 bus1=BMT125729916.1,bus2=BMT168374905.1,Phases=1,LineCode=tieSwitch1,Length=0.001,Units=km,switch=T !numEQ 85128
new line.CTR143948 bus1=BMT125728593.1.2.3,bus2=BMT158560104.1.2.3,Phases=3,LineCode=tieSwitch,Length=0.001,Units=km,switch=T !numEQ 84656
new line.CTR143955 bus1=BMT125725205.1.2.3,bus2=BMT159987315.1.2.3,Phases=3,LineCode=tieSwitch,Length=0.001,Units=km,switch=T !numEQ 84089
new line.CTR143962 bus1=BMT125724365.2,bus2=BMT138016211.2,Phases=1,LineCode=tieSwitch1,Length=0.001,Units=km,switch=T !numEQ 91279
new line.CTR143976 bus1=BMT125724393.1.2.3,bus2=BMT125724456.1.2.3,Phases=3,LineCode=tieSwitch,Length=0.001,Units=km,switch=T !numEQ 85482
new line.CTR143983 bus1=BMT125725877.1.2.3,bus2=BMT172527259.1.2.3,Phases=3,LineCode=tieSwitch,Length=0.001,Units=km,switch=T !numEQ 85215
new line.CTR143990 bus1=BMT125724484.1.2.3,bus2=BMT172567208.1.2.3,Phases=3,LineCode=tieSwitch,Length=0.001,Units=km,switch=T !numEQ 84300
new line.CTR143997 bus1=BMT125724610.1,bus2=BMT170902446.1,Phases=1,LineCode=tieSwitch1,Length=0.001,Units=km,switch=T !numEQ 85136
new line.CTR144004 bus1=BMT141339545.1.2.3,bus2=BMT172567039.1.2.3,Phases=3,LineCode=tieSwitch,Length=0.001,Units=km,switch=T !numEQ 307834
new line.CTR144011 bus1=BMT125724939.1.2.3,bus2=BMT172612277.1.2.3,Phases=3,LineCode=tieSwitch,Length=0.001,Units=km,switch=T !numEQ 84203
new line.CTR144018 bus1=BMT125725079.1.2.3,bus2=BMT125725086.1.2.3,Phases=3,LineCode=tieSwitch,Length=0.001,Units=km,switch=T !numEQ 85635
new line.CTR144032 bus1=BMT125725198.1.2.3,bus2=BMT125725443.1.2.3,Phases=3,LineCode=tieSwitch,Length=0.001,Units=km,switch=T !numEQ 84487
new line.CTR144046 bus1=BMT125725114.1.2.3,bus2=BMT125729342.1.2.3,Phases=3,LineCode=tieSwitch,Length=0.001,Units=km,switch=T !numEQ 84623
new line.CTR144053 bus1=BMT125725604.1.2.3,bus2=BMT125728432.1.2.3,Phases=3,LineCode=tieSwitch,Length=0.001,Units=km,switch=T !numEQ 84056
new line.CTR144060 bus1=BMT125725688.1.2.3,bus2=BMT158183560.1.2.3,Phases=3,LineCode=tieSwitch,Length=0.001,Units=km,switch=T !numEQ 85006
new line.CTR144067 bus1=BMT125725800.1.2.3,bus2=BMT125725828.1.2.3,Phases=3,LineCode=tieSwitch,Length=0.001,Units=km,switch=T !numEQ 84914
new line.CTR144088 bus1=BMT125725968.2,bus2=BMT125727361.2,Phases=1,LineCode=tieSwitch1,Length=0.001,Units=km,switch=T !numEQ 85588
new line.CTR144095 bus1=BMT125734564.1,bus2=BMT163340172.1,Phases=1,LineCode=tieSwitch1,Length=0.001,Units=km,switch=T !numEQ 84485
new line.CTR144102 bus1=BMT154588523.2,bus2=BMT154588651.2,Phases=1,LineCode=tieSwitch1,Length=0.001,Units=km,switch=T !numEQ 84363
new line.CTR144116 bus1=BMT125726269.2,bus2=BMT164837492.2,Phases=1,LineCode=tieSwitch1,Length=0.001,Units=km,switch=T !numEQ 85564
new line.CTR144130 bus1=BMT154965886.2,bus2=BMT164668346.2,Phases=1,LineCode=tieSwitch1,Length=0.001,Units=km,switch=T !numEQ 312418
new line.CTR144137 bus1=BMT125725975.1.2.3,bus2=BMT144465843.1.2.3,Phases=3,LineCode=tieSwitch,Length=0.001,Units=km,switch=T !numEQ 85673
new line.CTR144144 bus1=BMT125725856.1.2.3,bus2=BMT125727907.1.2.3,Phases=3,LineCode=tieSwitch,Length=0.001,Units=km,switch=T !numEQ 85672
new line.CTR144151 bus1=BMT125725765.1.2.3,bus2=BMT148043543.1.2.3,Phases=3,LineCode=tieSwitch,Length=0.001,Units=km,switch=T !numEQ 85429
new line.CTR144158 bus1=BMT125727991.1.2.3,bus2=BMT166127199.1.2.3,Phases=3,LineCode=tieSwitch,Length=0.001,Units=km,switch=T !numEQ 85219
new line.CTR144165 bus1=BMT125728229.3,bus2=BMT173107062.3,Phases=1,LineCode=tieSwitch1,Length=0.001,Units=km,switch=T !numEQ 296394
new line.CTR144172 bus1=BMT125725709.1.2.3,bus2=BMT125728383.1.2.3,Phases=3,LineCode=tieSwitch,Length=0.001,Units=km,switch=T !numEQ 85212
new line.CTR144179 bus1=BMT125724351.2,bus2=BMT172749074.2,Phases=1,LineCode=tieSwitch1,Length=0.001,Units=km,switch=T !numEQ 91468
new line.CTR161112 bus1=BMT125737007.1.2.3,bus2=BMT162808494.1.2.3,Phases=3,LineCode=tieSwitch,Length=0.001,Units=km,switch=T !numEQ 293029
new line.CTR161182 bus1=BMT125724015.1,bus2=BMT133362842.1,Phases=1,LineCode=tieSwitch1,Length=0.001,Units=km,switch=T !numEQ 100776
new line.CTR161700 bus1=BMT125734494.1,bus2=BMT125734515.1,Phases=1,LineCode=tieSwitch1,Length=0.001,Units=km,switch=T !numEQ 84164
new line.CTR162834 bus1=BMT125736685.3,bus2=BMT125736713.3,Phases=1,LineCode=tieSwitch1,Length=0.001,Units=km,switch=T !numEQ 175104
new line.CTR176260 bus1=BMT161008503.1.2.3,bus2=BMT125728621.1.2.3,Phases=3,LineCode=tieSwitch,Length=0.001,Units=km,switch=T !numEQ 174012
new line.CTR176498 bus1=BMT125734627.1,bus2=BMT172669225.1,Phases=1,LineCode=tieSwitch1,Length=0.001,Units=km,switch=T !numEQ 141088
new line.CTR176512 bus1=BMT125734585.1,bus2=BMT125734592.1,Phases=1,LineCode=tieSwitch1,Length=0.001,Units=km,switch=T !numEQ 84361
new line.CTR176526 bus1=BMT125734879.1,bus2=BMT165153560.1,Phases=1,LineCode=tieSwitch1,Length=0.001,Units=km,switch=T !numEQ 84371
new line.CTR176596 bus1=BMT166265463.3,bus2=BMT125730091.3,Phases=1,LineCode=tieSwitch1,Length=0.001,Units=km,switch=T !numEQ 286822
open line.CTR176596 term=1
new line.CTR191800 bus1=BMT140969462.1.2.3,bus2=BMT168912957.1.2.3,Phases=3,LineCode=tieSwitch,Length=0.001,Units=km,switch=T !numEQ 258420
new line.CTR192941 bus1=BMT125730308.1,bus2=BMT168374983.1,Phases=1,LineCode=tieSwitch1,Length=0.001,Units=km,switch=T !numEQ 175430
new line.CTR124670 bus1=BMT125723805.3,bus2=BMT125736006.3,Phases=1,LineCode=tieSwitch1,Length=0.001,Units=km,switch=T !numEQ 84111
new line.CTR139104 bus1=BMT125728642.1.2.3,bus2=BMT125728663.1.2.3,Phases=3,LineCode=tieSwitch,Length=0.001,Units=km,switch=T !numEQ 104037
new line.CTR139258 bus1=BMT125733892.1,bus2=BMT164711929.1,Phases=1,LineCode=tieSwitch1,Length=0.001,Units=km,switch=T !numEQ 172099
new line.CTR154476 bus1=BMT125723721.1,bus2=BMT125723728.1,Phases=1,LineCode=tieSwitch1,Length=0.001,Units=km,switch=T !numEQ 174729
new line.CTR154518 bus1=BMT125725674.1.2.3,bus2=BMT125725681.1.2.3,Phases=3,LineCode=tieSwitch,Length=0.001,Units=km,switch=T !numEQ 85003
open line.CTR154518 term=1
new line.CTR168609 bus1=BMT125724260.3,bus2=BMT125731988.3,Phases=1,LineCode=tieSwitch1,Length=0.001,Units=km,switch=T !numEQ 103740
new line.CTR169015 bus1=BMT163191452.1,bus2=BMT168374893.1,Phases=1,LineCode=tieSwitch1,Length=0.001,Units=km,switch=T !numEQ 85125
new line.CTR184639 bus1=BMT125735530.3,bus2=BMT165120574.3,Phases=1,LineCode=tieSwitch1,Length=0.001,Units=km,switch=T !numEQ 174884
new line.CTR455153 bus1=BMT144485023.3,bus2=BMT172531855.3,Phases=1,LineCode=tieSwitch1,Length=0.001,Units=km,switch=T !numEQ 316145
new line.CTR70399 bus1=BMT125733689.1.2.3,bus2=BMT150345371.1.2.3,Phases=3,LineCode=tieSwitch,Length=0.001,Units=km,switch=T !numEQ 141468
new line.CTR854797 bus1=BMT151304466.3,bus2=BMT151304505.3,Phases=1,LineCode=tieSwitch1,Length=0.001,Units=km,switch=T !numEQ 129488
new line.CTR869858 bus1=BMT155634572.1.2.3,bus2=BMT156123907.1.2.3,Phases=3,LineCode=tieSwitch,Length=0.001,Units=km,switch=T !numEQ 317562
new line.CTR870100 bus1=BMT155705797.1.2.3,bus2=BMT157767016.1.2.3,Phases=3,LineCode=tieSwitch,Length=0.001,Units=km,switch=T !numEQ 236647
new line.CTR905455 bus1=BMT168480828.1.2.3,bus2=BMT168480829.1.2.3,Phases=3,LineCode=tieSwitch,Length=0.001,Units=km,switch=T !numEQ 272075
new line.CTR912991 bus1=BMT172527268.3,bus2=BMT171131187.3,Phases=1,LineCode=tieSwitch1,Length=0.001,Units=km,switch=T !numEQ 271986
new line.CTR98490 bus1=BMT125728460.1.2.3,bus2=BMT125729272.1.2.3,Phases=3,LineCode=tieSwitch,Length=0.001,Units=km,switch=T !numEQ 133668
new line.CTR98798 bus1=BMT149701859.3,bus2=BMT165026386.3,Phases=1,LineCode=tieSwitch1,Length=0.001,Units=km,switch=T !numEQ 295982
new line.CTRR33914 bus1=BMT154588652.2,bus2=BMT166027372.2,Phases=1,LineCode=tieSwitch1,Length=0.001,Units=km,switch=T !numEQ 181947
new line.CTR10773 bus1=BMT125734893.1,bus2=BMT125735474.1,Phases=1,LineCode=tieSwitch1,Length=0.001,Units=km,switch=T !numEQ 141087
new line.CTR10801 bus1=BMT125731841.2,bus2=BMT172345210.2,Phases=1,LineCode=tieSwitch1,Length=0.001,Units=km,switch=T !numEQ 85137
new line.CTR108486 bus1=BMT125736916.1.2.3,bus2=BMT125737371.1.2.3,Phases=3,LineCode=tieSwitch,Length=0.001,Units=km,switch=T !numEQ 130794
new line.CTR150787 bus1=BMT125733857.1,bus2=BMT159845588.1,Phases=1,LineCode=tieSwitch1,Length=0.001,Units=km,switch=T !numEQ 127502
new line.CTR164927 bus1=BMT125724253.1.2.3,bus2=BMT125732016.1.2.3,Phases=3,LineCode=tieSwitch,Length=0.001,Units=km,switch=T !numEQ 79936
new line.CTR165256 bus1=BMT125737427.2,bus2=BMT170994163.2,Phases=1,LineCode=tieSwitch1,Length=0.001,Units=km,switch=T !numEQ 174631
new line.CTR180341 bus1=BMT125734949.1,bus2=BMT125735082.1,Phases=1,LineCode=tieSwitch1,Length=0.001,Units=km,switch=T !numEQ 175549
new line.CTR180733 bus1=BMT125736475.2,bus2=BMT150477192.2,Phases=1,LineCode=tieSwitch1,Length=0.001,Units=km,switch=T !numEQ 84493
new line.CTR180964 bus1=BMT165026465.3,bus2=BMT125730875.3,Phases=1,LineCode=tieSwitch1,Length=0.001,Units=km,switch=T !numEQ 172807
new line.CTR181230 bus1=BMT125725863.1.2.3,bus2=BMT137159537.1.2.3,Phases=3,LineCode=tieSwitch,Length=0.001,Units=km,switch=T !numEQ 171977
new line.CTR181314 bus1=BMT125726220.2,bus2=BMT171155543.2,Phases=1,LineCode=tieSwitch1,Length=0.001,Units=km,switch=T !numEQ 84364
new line.CTR181321 bus1=BMT125725996.1.2.3,bus2=BMT154588522.1.2.3,Phases=3,LineCode=tieSwitch,Length=0.001,Units=km,switch=T !numEQ 85127
new line.CTR38696 bus1=BMT125732142.2,bus2=BMT172201341.2,Phases=1,LineCode=tieSwitch1,Length=0.001,Units=km,switch=T !numEQ 85642
new line.CTR387134 bus1=BMT145535114.2,bus2=BMT145535142.2,Phases=1,LineCode=tieSwitch1,Length=0.001,Units=km,switch=T !numEQ 293060
new line.CTR387155 bus1=BMT129919437.3,bus2=BMT165026469.3,Phases=1,LineCode=tieSwitch1,Length=0.001,Units=km,switch=T !numEQ 294759
new line.CTR438521 bus1=BMT150477193.2,bus2=BMT159656811.2,Phases=1,LineCode=tieSwitch1,Length=0.001,Units=km,switch=T !numEQ 311102
new line.CTR463994 bus1=BMT146949597.1,bus2=BMT160148166.1,Phases=1,LineCode=tieSwitch1,Length=0.001,Units=km,switch=T !numEQ 312364
new line.CTR55552 bus1=BMT125724554.1.2.3,bus2=BMT150345367.1.2.3,Phases=3,LineCode=tieSwitch,Length=0.001,Units=km,switch=T !numEQ 171867
new line.CTR77217 bus1=BMT125724078.1,bus2=BMT169775853.1,Phases=1,LineCode=tieSwitch1,Length=0.001,Units=km,switch=T !numEQ 116852
new line.CTR871484 bus1=BMT156132979.1.2.3,bus2=BMT160183192.1.2.3,Phases=3,LineCode=tieSwitch,Length=0.001,Units=km,switch=T !numEQ 243068
new line.CTR885172 bus1=BMT161040243.3,bus2=BMT161040245.3,Phases=1,LineCode=tieSwitch1,Length=0.001,Units=km,switch=T !numEQ 236576
new line.CTR885374 bus1=BMT161111568.1,bus2=BMT168374977.1,Phases=1,LineCode=tieSwitch1,Length=0.001,Units=km,switch=T !numEQ 263241
new line.CTR893836 bus1=BMT170902447.1,bus2=BMT170902448.1,Phases=1,LineCode=tieSwitch1,Length=0.001,Units=km,switch=T !numEQ 269955
new line.CTRR11311 bus1=BMT125732058.2,bus2=BMT165805567.2,Phases=1,LineCode=tieSwitch1,Length=0.001,Units=km,switch=T !numEQ 174616
new line.CTRR1302 bus1=BMT125724463.1.2.3,bus2=BMT125724470.1.2.3,Phases=3,LineCode=tieSwitch,Length=0.001,Units=km,switch=T !numEQ 375506
new line.CTRR39822 bus1=BMT163189545.1,bus2=BMT168904764.1,Phases=1,LineCode=tieSwitch1,Length=0.001,Units=km,switch=T !numEQ 221522
new line.CTR119070 bus1=BMT125736923.1,bus2=BMT133737629.1,Phases=1,LineCode=tieSwitch1,Length=0.001,Units=km,switch=T !numEQ 115624
new line.CTR148757 bus1=BMT125725072.1.2.3,bus2=BMT150413815.1.2.3,Phases=3,LineCode=tieSwitch,Length=0.001,Units=km,switch=T !numEQ 115921
new line.CTR163212 bus1=BMT125731015.3,bus2=BMT165026501.3,Phases=1,LineCode=tieSwitch1,Length=0.001,Units=km,switch=T !numEQ 175244
new line.CTR163793 bus1=BMT125724974.1.2.3,bus2=BMT148601857.1.2.3,Phases=3,LineCode=tieSwitch,Length=0.001,Units=km,switch=T !numEQ 84060
new line.CTR163807 bus1=BMT125724988.1.2.3,bus2=BMT125729391.1.2.3,Phases=3,LineCode=tieSwitch,Length=0.001,Units=km,switch=T !numEQ 114083
new line.CTR16429 bus1=BMT125723819.3,bus2=BMT125735971.3,Phases=1,LineCode=tieSwitch1,Length=0.001,Units=km,switch=T !numEQ 104011
new line.CTR38892 bus1=BMT125723707.1.2.3,bus2=BMT168179854.1.2.3,Phases=3,LineCode=tieSwitch,Length=0.001,Units=km,switch=T !numEQ 84673
new line.CTR413671 bus1=BMT165353141.1.2.3,bus2=BMT133633784.1.2.3,Phases=3,LineCode=tieSwitch,Length=0.001,Units=km,switch=T !numEQ 292331
open line.CTR413671 term=1
new line.CTR413678 bus1=BMT133636108.1.2.3,bus2=BMT156090653.1.2.3,Phases=3,LineCode=tieSwitch,Length=0.001,Units=km,switch=T !numEQ 292332
new line.CTR4445 bus1=BMT125734172.3,bus2=BMT162494199.3,Phases=1,LineCode=tieSwitch1,Length=0.001,Units=km,switch=T !numEQ 173024
new line.CTR44499 bus1=BMT125723756.1.2.3,bus2=BMT168050901.1.2.3,Phases=3,LineCode=tieSwitch,Length=0.001,Units=km,switch=T !numEQ 100814
new line.CTR55937 bus1=BMT125733255.3,bus2=BMT150439858.3,Phases=1,LineCode=tieSwitch1,Length=0.001,Units=km,switch=T !numEQ 119077
new line.CTR67928 bus1=BMT125724491.1.2.3,bus2=BMT164178410.1.2.3,Phases=3,LineCode=tieSwitch,Length=0.001,Units=km,switch=T !numEQ 84183
new line.CTR78372 bus1=BMT125733332.3,bus2=BMT164746074.3,Phases=1,LineCode=tieSwitch1,Length=0.001,Units=km,switch=T !numEQ 85634
new line.CTR851963 bus1=BMT150439871.3,bus2=BMT150439893.3,Phases=1,LineCode=tieSwitch1,Length=0.001,Units=km,switch=T !numEQ 381814
new line.CTR88753 bus1=BMT125723798.1.2.3,bus2=BMT125736041.1.2.3,Phases=3,LineCode=tieSwitch,Length=0.001,Units=km,switch=T !numEQ 102359
new line.CTR888728 bus1=BMT162494205.3,bus2=BMT162494356.3,Phases=1,LineCode=tieSwitch1,Length=0.001,Units=km,switch=T !numEQ 265756
new line.CTR894764 bus1=BMT164746087.3,bus2=BMT164746090.3,Phases=1,LineCode=tieSwitch1,Length=0.001,Units=km,switch=T !numEQ 269990
new line.CTR895018 bus1=BMT164809051.3,bus2=BMT164876623.3,Phases=1,LineCode=tieSwitch1,Length=0.001,Units=km,switch=T !numEQ 270037
new line.CTR896001 bus1=BMT165120596.3,bus2=BMT165120632.3,Phases=1,LineCode=tieSwitch1,Length=0.001,Units=km,switch=T !numEQ 270767
new line.CTR896100 bus1=BMT165153576.1,bus2=BMT165155228.1,Phases=1,LineCode=tieSwitch1,Length=0.001,Units=km,switch=T !numEQ 239418
new line.CTR9086 bus1=BMT125724666.1,bus2=BMT164654622.1,Phases=1,LineCode=tieSwitch1,Length=0.001,Units=km,switch=T !numEQ 103827
new line.CTR918646 bus1=BMT172827919.2,bus2=BMT172827920.2,Phases=1,LineCode=tieSwitch1,Length=0.001,Units=km,switch=T !numEQ 280666
new line.CTRR18374 bus1=BMT133362849.1,bus2=BMT133362856.1,Phases=1,LineCode=tieSwitch1,Length=0.001,Units=km,switch=T !numEQ 214277
new line.CTRR41600 bus1=BMT170090146.1.2.3,bus2=BMT170090147.1.2.3,Phases=3,LineCode=tieSwitch,Length=0.001,Units=km,switch=T !numEQ 278227
new line.CTR11767 bus1=BMT125726472.2,bus2=BMT154823564.2,Phases=1,LineCode=tieSwitch1,Length=0.001,Units=km,switch=T !numEQ 134785
new line.CTR159208 bus1=BMT125723644.1.2.3,bus2=BMT171892082.1.2.3,Phases=3,LineCode=tieSwitch,Length=0.001,Units=km,switch=T !numEQ 273686
new line.CTR159292 bus1=BMT125729825.3,bus2=BMT163248128.3,Phases=1,LineCode=tieSwitch1,Length=0.001,Units=km,switch=T !numEQ 136351
new line.CTR159824 bus1=BMT125736853.2,bus2=BMT125737420.2,Phases=1,LineCode=tieSwitch1,Length=0.001,Units=km,switch=T !numEQ 84151
new line.CTR159922 bus1=BMT125727879.2,bus2=BMT127618600.2,Phases=1,LineCode=tieSwitch1,Length=0.001,Units=km,switch=T !numEQ 175177
new line.CTR160426 bus1=BMT125731071.3,bus2=BMT165026567.3,Phases=1,LineCode=tieSwitch1,Length=0.001,Units=km,switch=T !numEQ 103858
new line.CTR174797 bus1=BMT125729055.1,bus2=BMT125729076.1,Phases=1,LineCode=tieSwitch1,Length=0.001,Units=km,switch=T !numEQ 103824
new line.CTR174874 bus1=BMT125723623.1.2.3,bus2=BMT125723630.1.2.3,Phases=3,LineCode=tieSwitch,Length=0.001,Units=km,switch=T !numEQ 85270
new line.CTR174965 bus1=BMT125736797.1,bus2=BMT172738929.1,Phases=1,LineCode=tieSwitch1,Length=0.001,Units=km,switch=T !numEQ 293055
new line.CTR175609 bus1=BMT125723931.1.2.3,bus2=BMT125723987.1.2.3,Phases=3,LineCode=tieSwitch,Length=0.001,Units=km,switch=T !numEQ 175363
new line.CTR189469 bus1=BMT125724526.1.2.3,bus2=BMT125724841.1.2.3,Phases=3,LineCode=tieSwitch,Length=0.001,Units=km,switch=T !numEQ 214029
new line.CTR190127 bus1=BMT168911758.2,bus2=BMT140970141.2,Phases=1,LineCode=tieSwitch1,Length=0.001,Units=km,switch=T !numEQ 209889
new line.CTR27342 bus1=BMT125724897.1.2.3,bus2=BMT125729475.1.2.3,Phases=3,LineCode=tieSwitch,Length=0.001,Units=km,switch=T !numEQ 173815
new line.CTR337714 bus1=BMT125724540.1.2.3,bus2=BMT125724827.1.2.3,Phases=3,LineCode=tieSwitch,Length=0.001,Units=km,switch=T !numEQ 226661
new line.CTR400294 bus1=BMT129642384.1.2.3,bus2=BMT172572046.1.2.3,Phases=3,LineCode=tieSwitch,Length=0.001,Units=km,switch=T !numEQ 214282
new line.CTR430142 bus1=BMT137954352.3,bus2=BMT166443535.3,Phases=1,LineCode=tieSwitch1,Length=0.001,Units=km,switch=T !numEQ 308577
new line.CTR431969 bus1=BMT138440215.1.2.3,bus2=BMT138440222.1.2.3,Phases=3,LineCode=tieSwitch,Length=0.001,Units=km,switch=T !numEQ 228698
new line.CTR6986 bus1=BMT125724295.1.2.3,bus2=BMT149718860.1.2.3,Phases=3,LineCode=tieSwitch,Length=0.001,Units=km,switch=T !numEQ 136505
new line.CTR69972 bus1=BMT125723784.3,bus2=BMT125736090.3,Phases=1,LineCode=tieSwitch1,Length=0.001,Units=km,switch=T !numEQ 172057
new line.CTR7000 bus1=BMT125724113.1.2.3,bus2=BMT125733598.1.2.3,Phases=3,LineCode=tieSwitch,Length=0.001,Units=km,switch=T !numEQ 91268
new line.CTR73171 bus1=BMT125724218.2,bus2=BMT125732051.2,Phases=1,LineCode=tieSwitch1,Length=0.001,Units=km,switch=T !numEQ 85640
new line.CTR78869 bus1=BMT125724323.1.2.3,bus2=BMT168911751.1.2.3,Phases=3,LineCode=tieSwitch,Length=0.001,Units=km,switch=T !numEQ 85639
new line.CTR853713 bus1=BMT150970868.3,bus2=BMT166265461.3,Phases=1,LineCode=tieSwitch1,Length=0.001,Units=km,switch=T !numEQ 173665
new line.CTR875752 bus1=BMT157422621.2,bus2=BMT164547161.2,Phases=1,LineCode=tieSwitch1,Length=0.001,Units=km,switch=T !numEQ 246801
new line.CTR890222 bus1=BMT163180787.3,bus2=BMT163248241.3,Phases=1,LineCode=tieSwitch1,Length=0.001,Units=km,switch=T !numEQ 258418
new line.CTR890233 bus1=BMT163188605.1.2.3,bus2=BMT168913439.1.2.3,Phases=3,LineCode=tieSwitch,Length=0.001,Units=km,switch=T !numEQ 258417
new line.CTR890280 bus1=BMT172374389.2,bus2=BMT172374536.2,Phases=1,LineCode=tieSwitch1,Length=0.001,Units=km,switch=T !numEQ 262840
new line.CTR97314 bus1=BMT161466022.1.2.3,bus2=BMT125725513.1.2.3,Phases=3,LineCode=tieSwitch,Length=0.001,Units=km,switch=T !numEQ 85010
open line.CTR97314 term=1
new line.CTRR5514 bus1=BMT162722049.1.2.3,bus2=BMT3414726.1.2.3,Phases=3,LineCode=tieSwitch,Length=0.001,Units=km,switch=T !numEQ 228826
open line.CTRR5514 term=1
new line.CTR10969 bus1=BMT125728691.1.2.3,bus2=BMT125728698.1.2.3,Phases=3,LineCode=tieSwitch,Length=0.001,Units=km,switch=T !numEQ 142623
new line.CTR10976 bus1=BMT125728600.1.2.3,bus2=BMT125728677.1.2.3,Phases=3,LineCode=tieSwitch,Length=0.001,Units=km,switch=T !numEQ 142624
new line.CTR137991 bus1=BMT125736888.1.2.3,bus2=BMT156123870.1.2.3,Phases=3,LineCode=tieSwitch,Length=0.001,Units=km,switch=T !numEQ 84153
new line.CTR138502 bus1=BMT125736832.2,bus2=BMT172827916.2,Phases=1,LineCode=tieSwitch1,Length=0.001,Units=km,switch=T !numEQ 84161
new line.CTR182189 bus1=BMT125730889.3,bus2=BMT165026494.3,Phases=1,LineCode=tieSwitch1,Length=0.001,Units=km,switch=T !numEQ 172853
new line.CTR182329 bus1=BMT125728481.1.2.3,bus2=BMT125728488.1.2.3,Phases=3,LineCode=tieSwitch,Length=0.001,Units=km,switch=T !numEQ 85002
new line.CTR182336 bus1=BMT125729202.1.2.3,bus2=BMT125729258.1.2.3,Phases=3,LineCode=tieSwitch,Length=0.001,Units=km,switch=T !numEQ 172502
new line.CTR18326 bus1=BMT125731512.1,bus2=BMT168374895.1,Phases=1,LineCode=tieSwitch1,Length=0.001,Units=km,switch=T !numEQ 142347
new line.CTR21490 bus1=BMT125734487.1,bus2=BMT125734501.1,Phases=1,LineCode=tieSwitch1,Length=0.001,Units=km,switch=T !numEQ 100773
new line.CTR359316 bus1=BMT125725926.1.2.3,bus2=BMT125725933.1.2.3,Phases=3,LineCode=tieSwitch,Length=0.001,Units=km,switch=T !numEQ 228761
new line.CTR44835 bus1=BMT125736657.1.2.3,bus2=BMT125736741.1.2.3,Phases=3,LineCode=tieSwitch,Length=0.001,Units=km,switch=T !numEQ 174318
new line.CTR58184 bus1=BMT125725212.1.2.3,bus2=BMT156668870.1.2.3,Phases=3,LineCode=tieSwitch,Length=0.001,Units=km,switch=T !numEQ 84369
new line.CTR58191 bus1=BMT125725401.3,bus2=BMT125725408.3,Phases=1,LineCode=tieSwitch1,Length=0.001,Units=km,switch=T !numEQ 84370
new line.CTR58198 bus1=BMT125725163.1.2.3,bus2=BMT161466018.1.2.3,Phases=3,LineCode=tieSwitch,Length=0.001,Units=km,switch=T !numEQ 85011
new line.CTR58205 bus1=BMT125725499.1.2.3,bus2=BMT132618931.1.2.3,Phases=3,LineCode=tieSwitch,Length=0.001,Units=km,switch=T !numEQ 85185
new line.CTR58219 bus1=BMT125725121.1.2.3,bus2=BMT125729286.1.2.3,Phases=3,LineCode=tieSwitch,Length=0.001,Units=km,switch=T !numEQ 84622
new line.CTR58226 bus1=BMT125728453.1.2.3,bus2=BMT161008490.1.2.3,Phases=3,LineCode=tieSwitch,Length=0.001,Units=km,switch=T !numEQ 84593
new line.CTR58240 bus1=BMT125728635.1.2.3,bus2=BMT171565166.1.2.3,Phases=3,LineCode=tieSwitch,Length=0.001,Units=km,switch=T !numEQ 84654
new line.CTR58247 bus1=BMT125728775.1,bus2=BMT159861913.1,Phases=1,LineCode=tieSwitch1,Length=0.001,Units=km,switch=T !numEQ 85636
new line.CTR58254 bus1=BMT170090154.1.2.3,bus2=BMT125725632.1.2.3,Phases=3,LineCode=tieSwitch,Length=0.001,Units=km,switch=T !numEQ 85004
new line.CTR58261 bus1=BMT125730805.3,bus2=BMT165026584.3,Phases=1,LineCode=tieSwitch1,Length=0.001,Units=km,switch=T !numEQ 103826
new line.CTR58275 bus1=BMT125725758.1.2.3,bus2=BMT125725786.1.2.3,Phases=3,LineCode=tieSwitch,Length=0.001,Units=km,switch=T !numEQ 85007
new line.CTR58282 bus1=BMT125725940.1.2.3,bus2=BMT125727382.1.2.3,Phases=3,LineCode=tieSwitch,Length=0.001,Units=km,switch=T !numEQ 84130
new line.CTR58317 bus1=BMT125736097.3,bus2=BMT157548842.3,Phases=1,LineCode=tieSwitch1,Length=0.001,Units=km,switch=T !numEQ 84171
new line.CTR58324 bus1=BMT155541245.1,bus2=BMT155541251.1,Phases=1,LineCode=tieSwitch1,Length=0.001,Units=km,switch=T !numEQ 317563
new line.CTR58331 bus1=BMT125723791.1.2.3,bus2=BMT168480827.1.2.3,Phases=3,LineCode=tieSwitch,Length=0.001,Units=km,switch=T !numEQ 262433
new line.CTR58338 bus1=BMT125723868.1.2.3,bus2=BMT155617644.1.2.3,Phases=3,LineCode=tieSwitch,Length=0.001,Units=km,switch=T !numEQ 84163
new line.CTR58345 bus1=BMT125723896.3,bus2=BMT125735943.3,Phases=1,LineCode=tieSwitch1,Length=0.001,Units=km,switch=T !numEQ 84594
new line.CTR58352 bus1=BMT125724022.1.2.3,bus2=BMT125724029.1.2.3,Phases=3,LineCode=tieSwitch,Length=0.001,Units=km,switch=T !numEQ 85389
new line.CTR58359 bus1=BMT125724071.1.2.3,bus2=BMT125733836.1.2.3,Phases=3,LineCode=tieSwitch,Length=0.001,Units=km,switch=T !numEQ 84168
new line.CTR58366 bus1=BMT125724183.1.2.3,bus2=BMT148772070.1.2.3,Phases=3,LineCode=tieSwitch,Length=0.001,Units=km,switch=T !numEQ 85570
new line.CTR58373 bus1=BMT125724211.1.2.3,bus2=BMT161979824.1.2.3,Phases=3,LineCode=tieSwitch,Length=0.001,Units=km,switch=T !numEQ 307797
new line.CTR58387 bus1=BMT125730112.1,bus2=BMT171054049.1,Phases=1,LineCode=tieSwitch1,Length=0.001,Units=km,switch=T !numEQ 85649
new line.CTR58394 bus1=BMT125724330.2,bus2=BMT172473425.2,Phases=1,LineCode=tieSwitch1,Length=0.001,Units=km,switch=T !numEQ 91467
new line.CTR58401 bus1=BMT149718865.1,bus2=BMT165042335.1,Phases=1,LineCode=tieSwitch1,Length=0.001,Units=km,switch=T !numEQ 85638
new line.CTR58415 bus1=BMT125724561.1,bus2=BMT162575540.1,Phases=1,LineCode=tieSwitch1,Length=0.001,Units=km,switch=T !numEQ 84377
new line.CTR58422 bus1=BMT125724589.1,bus2=BMT158988180.1,Phases=1,LineCode=tieSwitch1,Length=0.001,Units=km,switch=T !numEQ 85132
new line.CTR58464 bus1=BMT125724008.3,bus2=BMT125735523.3,Phases=1,LineCode=tieSwitch1,Length=0.001,Units=km,switch=T !numEQ 84512
new line.CTR877297 bus1=BMT157975962.1,bus2=BMT168374969.1,Phases=1,LineCode=tieSwitch1,Length=0.001,Units=km,switch=T !numEQ 232998
new line.CTR896852 bus1=BMT166421086.2,bus2=BMT166421103.2,Phases=1,LineCode=tieSwitch1,Length=0.001,Units=km,switch=T !numEQ 271402
new line.CTR379847 bus1=BMT125737490.2,bus2=BMT172637672.2,Phases=1,LineCode=tieSwitch1,Length=0.001,Units=km,switch=T !numEQ 287372
new line.CTR38185 bus1=BMT125737161.3,bus2=BMT125737168.3,Phases=1,LineCode=tieSwitch1,Length=0.001,Units=km,switch=T !numEQ 175150
new line.CTR40334 bus1=BMT164179432.1.2.3,bus2=BMT165353137.1.2.3,Phases=3,LineCode=tieSwitch,Length=0.001,Units=km,switch=T !numEQ 85107
new line.CTR434391 bus1=BMT148043477.3,bus2=BMT148043563.3,Phases=1,LineCode=tieSwitch1,Length=0.001,Units=km,switch=T !numEQ 298033
new line.CTR43610 bus1=BMT125736867.1.2.3,bus2=BMT125737385.1.2.3,Phases=3,LineCode=tieSwitch,Length=0.001,Units=km,switch=T !numEQ 125873
new line.CTR53599 bus1=BMT125724085.1.2.3,bus2=BMT125733682.1.2.3,Phases=3,LineCode=tieSwitch,Length=0.001,Units=km,switch=T !numEQ 141467
new line.CTR82565 bus1=BMT125730665.1,bus2=BMT168375012.1,Phases=1,LineCode=tieSwitch1,Length=0.001,Units=km,switch=T !numEQ 173947
new line.CTR862619 bus1=BMT153487002.3,bus2=BMT160797435.3,Phases=1,LineCode=tieSwitch1,Length=0.001,Units=km,switch=T !numEQ 377820
new line.CTR862783 bus1=BMT153541476.1.2.3,bus2=BMT161086385.1.2.3,Phases=3,LineCode=tieSwitch,Length=0.001,Units=km,switch=T !numEQ 380093
new line.CTR878918 bus1=BMT158560109.1.2.3,bus2=BMT158560116.1.2.3,Phases=3,LineCode=tieSwitch,Length=0.001,Units=km,switch=T !numEQ 250045
new line.CTR141505 bus1=BMT125736167.3,bus2=BMT137954345.3,Phases=1,LineCode=tieSwitch1,Length=0.001,Units=km,switch=T !numEQ 84496
new line.CTR142324 bus1=BMT125737000.3,bus2=BMT125737154.3,Phases=1,LineCode=tieSwitch1,Length=0.001,Units=km,switch=T !numEQ 84886
new line.CTR157234 bus1=BMT125726304.2,bus2=BMT142723424.2,Phases=1,LineCode=tieSwitch1,Length=0.001,Units=km,switch=T !numEQ 203255
new line.CTR186235 bus1=BMT125725240.1,bus2=BMT125725345.1,Phases=1,LineCode=tieSwitch1,Length=0.001,Units=km,switch=T !numEQ 175654
new line.CTR33397 bus1=BMT125728796.2,bus2=BMT160259996.2,Phases=1,LineCode=tieSwitch1,Length=0.001,Units=km,switch=T !numEQ 84653
new line.CTR426691 bus1=BMT141459917.1.2.3,bus2=BMT161979525.1.2.3,Phases=3,LineCode=tieSwitch,Length=0.001,Units=km,switch=T !numEQ 307796
new line.CTR5404 bus1=BMT125730105.1,bus2=BMT169666543.1,Phases=1,LineCode=tieSwitch1,Length=0.001,Units=km,switch=T !numEQ 173285
new line.CTR60501 bus1=BMT125725016.1.2.3,bus2=BMT125725023.1.2.3,Phases=3,LineCode=tieSwitch,Length=0.001,Units=km,switch=T !numEQ 84373
new line.CTR60508 bus1=BMT125725100.1.2.3,bus2=BMT134923765.1.2.3,Phases=3,LineCode=tieSwitch,Length=0.001,Units=km,switch=T !numEQ 84624
new line.CTR60515 bus1=BMT159987319.1.2.3,bus2=BMT125725009.1.2.3,Phases=3,LineCode=tieSwitch,Length=0.001,Units=km,switch=T !numEQ 317653
open line.CTR60515 term=1
new line.CTR75642 bus1=BMT125734025.3,bus2=BMT164809042.3,Phases=1,LineCode=tieSwitch1,Length=0.001,Units=km,switch=T !numEQ 91476
new line.CTR75768 bus1=BMT134894596.3,bus2=BMT134894652.3,Phases=1,LineCode=tieSwitch1,Length=0.001,Units=km,switch=T !numEQ 91482
new line.CTR863943 bus1=BMT153879792.3,bus2=BMT165026472.3,Phases=1,LineCode=tieSwitch1,Length=0.001,Units=km,switch=T !numEQ 144204
new line.CTR880338 bus1=BMT159003759.2,bus2=BMT159003765.2,Phases=1,LineCode=tieSwitch1,Length=0.001,Units=km,switch=T !numEQ 235271
new line.CTRR37491 bus1=BMT149701723.3,bus2=BMT165026424.3,Phases=1,LineCode=tieSwitch1,Length=0.001,Units=km,switch=T !numEQ 286823
new line.CTR146132 bus1=BMT125729132.1.2.3,bus2=BMT125729188.1.2.3,Phases=3,LineCode=tieSwitch,Length=0.001,Units=km,switch=T !numEQ 203268
new line.CTR158494 bus1=BMT125723693.1.2.3,bus2=BMT125736755.1.2.3,Phases=3,LineCode=tieSwitch,Length=0.001,Units=km,switch=T !numEQ 84138
new line.CTR173306 bus1=BMT125724876.1.2.3,bus2=BMT125724883.1.2.3,Phases=3,LineCode=tieSwitch,Length=0.001,Units=km,switch=T !numEQ 84376
new line.CTR174160 bus1=BMT125724099.3,bus2=BMT160756199.3,Phases=1,LineCode=tieSwitch1,Length=0.001,Units=km,switch=T !numEQ 142724
new line.CTR18872 bus1=BMT125737476.2,bus2=BMT125737735.2,Phases=1,LineCode=tieSwitch1,Length=0.001,Units=km,switch=T !numEQ 116858
new line.CTR24724 bus1=BMT125723763.1.2.3,bus2=BMT125736454.1.2.3,Phases=3,LineCode=tieSwitch,Length=0.001,Units=km,switch=T !numEQ 84088
new line.CTR3297 bus1=BMT125731316.3,bus2=BMT165026467.3,Phases=1,LineCode=tieSwitch1,Length=0.001,Units=km,switch=T !numEQ 172098
new line.CTR60333 bus1=BMT125725954.1.2.3,bus2=BMT170162873.1.2.3,Phases=3,LineCode=tieSwitch,Length=0.001,Units=km,switch=T !numEQ 91479
new line.CTR60354 bus1=BMT125726451.2,bus2=BMT154387770.2,Phases=1,LineCode=tieSwitch1,Length=0.001,Units=km,switch=T !numEQ 84366
new line.CTR60361 bus1=BMT125726031.2,bus2=BMT148770977.2,Phases=1,LineCode=tieSwitch1,Length=0.001,Units=km,switch=T !numEQ 85076
new line.CTR60368 bus1=BMT125726297.2,bus2=BMT154965883.2,Phases=1,LineCode=tieSwitch1,Length=0.001,Units=km,switch=T !numEQ 84365
new line.CTR60375 bus1=BMT144465850.3,bus2=BMT144485016.3,Phases=1,LineCode=tieSwitch1,Length=0.001,Units=km,switch=T !numEQ 84368
new line.CTR60382 bus1=BMT144481670.3,bus2=BMT144481698.3,Phases=1,LineCode=tieSwitch1,Length=0.001,Units=km,switch=T !numEQ 122160
new line.CTR60403 bus1=BMT125725772.1.2.3,bus2=BMT166062007.1.2.3,Phases=3,LineCode=tieSwitch,Length=0.001,Units=km,switch=T !numEQ 85014
new line.CTR60424 bus1=BMT125725702.1.2.3,bus2=BMT159216136.1.2.3,Phases=3,LineCode=tieSwitch,Length=0.001,Units=km,switch=T !numEQ 85211
new line.CTR60431 bus1=BMT125724946.1.2.3,bus2=BMT125729433.1.2.3,Phases=3,LineCode=tieSwitch,Length=0.001,Units=km,switch=T !numEQ 84374
new line.CTR83426 bus1=BMT125724960.1.2.3,bus2=BMT125729419.1.2.3,Phases=3,LineCode=tieSwitch,Length=0.001,Units=km,switch=T !numEQ 172869
new line.CTR83671 bus1=BMT125723658.1.2.3,bus2=BMT125736769.1.2.3,Phases=3,LineCode=tieSwitch,Length=0.001,Units=km,switch=T !numEQ 15796
new line.CTR83706 bus1=BMT125736776.1.2.3,bus2=BMT169666042.1.2.3,Phases=3,LineCode=tieSwitch,Length=0.001,Units=km,switch=T !numEQ 174839
new line.CTR865712 bus1=BMT155026041.1,bus2=BMT168375018.1,Phases=1,LineCode=tieSwitch1,Length=0.001,Units=km,switch=T !numEQ 308588
new line.CTR867264 bus1=BMT154868279.3,bus2=BMT169948240.3,Phases=1,LineCode=tieSwitch1,Length=0.001,Units=km,switch=T !numEQ 317680
new line.CTR904326 bus1=BMT168050675.1.2.3,bus2=BMT168050902.1.2.3,Phases=3,LineCode=tieSwitch,Length=0.001,Units=km,switch=T !numEQ 272760
new line.CTR905267 bus1=BMT168416909.1.2.3,bus2=BMT168416912.1.2.3,Phases=3,LineCode=tieSwitch,Length=0.001,Units=km,switch=T !numEQ 276704
new line.CTR905269 bus1=BMT168417061.1.2.3,bus2=BMT168904708.1.2.3,Phases=3,LineCode=tieSwitch,Length=0.001,Units=km,switch=T !numEQ 277321
new line.CTR96173 bus1=BMT125734137.3,bus2=BMT163141107.3,Phases=1,LineCode=tieSwitch1,Length=0.001,Units=km,switch=T !numEQ 172771
new line.CTR96187 bus1=BMT125732590.2,bus2=BMT125732926.2,Phases=1,LineCode=tieSwitch1,Length=0.001,Units=km,switch=T !numEQ 142694
new line.CTR96299 bus1=BMT125737448.2,bus2=BMT157597113.2,Phases=1,LineCode=tieSwitch1,Length=0.001,Units=km,switch=T !numEQ 173136
new line.CTR96341 bus1=BMT125729881.1,bus2=BMT168374887.1,Phases=1,LineCode=tieSwitch1,Length=0.001,Units=km,switch=T !numEQ 258419
