2024_89_CemigReconfigurationCases/1_AlimsCemig/TCSD210/TCSD210SegmentosBT.dss
new line.1706061 bus1=BBT1944299.1.2.3.0,bus2=BBT1944292.1.2.3.0,Phases=3,Linecode=BT108_BT107_7_3_1,Length=0.039840000,Units=km
new line.1706068 bus1=BBT1944306.1.2.3.0,bus2=BBT1944299.1.2.3.0,Phases=3,Linecode=BT108_BT107_7_3_1,Length=0.026881000,Units=km
new line.1706075 bus1=BBT1944285.1.2.3.0,bus2=BBT1944313.1.2.3.0,Phases=3,Linecode=BT518_BT518_7_3_1,Length=0.000501000,Units=km
new line.1706082 bus1=BBT1944313.1.2.3.0,bus2=BBT1944320.1.2.3.0,Phases=3,Linecode=BT803_BT803_4_3_4,Length=0.040016000,Units=km
new line.1706089 bus1=BBT1944313.1.2.3.0,bus2=BBT3072384.1.2.3.0,Phases=3,Linecode=BT803_BT803_4_3_4,Length=0.036415000,Units=km
new line.1706096 bus1=BBT1944320.1.2.3.0,bus2=BBT1944327.1.2.3.0,Phases=3,Linecode=BT108_BT107_7_3_1,Length=0.038964000,Units=km
new line.1706110 bus1=BBT1944348.1.2.3.0,bus2=BBT1944341.1.2.3.0,Phases=3,Linecode=BT107_BT107_7_3_1,Length=0.034539000,Units=km
new line.1706117 bus1=BBT1944355.1.2.3.0,bus2=BBT3062570.1.2.3.0,Phases=3,Linecode=BT810_BT810_4_3_4,Length=0.031635000,Units=km
new line.1706124 bus1=BBT1944362.1.2.3.0,bus2=BBT1944348.1.2.3.0,Phases=3,Linecode=BT107_BT107_7_3_1,Length=0.034539000,Units=km
new line.1706131 bus1=BBT1944362.1.2.3.0,bus2=BBT1944355.1.2.3.0,Phases=3,Linecode=BT107_BT107_7_3_1,Length=0.033614000,Units=km
new line.1706138 bus1=BBT1944369.1.2.3.0,bus2=BBT1944362.1.2.3.0,Phases=3,Linecode=BT107_BT107_7_3_1,Length=0.037122000,Units=km
new line.1706145 bus1=BBT1944376.1.2.3.0,bus2=BBT1944369.1.2.3.0,Phases=3,Linecode=BT107_BT107_7_3_1,Length=0.033554000,Units=km
new line.1706152 bus1=BBT1944383.1.2.3.0,bus2=BBT1944390.1.2.3.0,Phases=3,Linecode=BT108_BT107_7_3_1,Length=0.029166000,Units=km
new line.1706159 bus1=BBT1944390.1.2.3.0,bus2=BBT1944376.1.2.3.0,Phases=3,Linecode=BT107_BT107_7_3_1,Length=0.030095000,Units=km
new line.1706173 bus1=BBT1944397.1.2.3.0,bus2=BBT1944383.1.2.3.0,Phases=3,Linecode=BT108_BT107_7_3_1,Length=0.030095000,Units=km
new line.1706180 bus1=BBT1944334.1.2.3.0,bus2=BBT1944397.1.2.3.0,Phases=3,Linecode=BT518_BT518_7_3_1,Length=0.000501000,Units=km
new line.1706187 bus1=BBT1944397.1.2.3.0,bus2=BBT1944404.1.2.3.0,Phases=3,Linecode=BT108_BT107_7_3_1,Length=0.042561000,Units=km
new line.1706194 bus1=BBT1944404.1.2.3.0,bus2=BBT1944411.1.2.3.0,Phases=3,Linecode=BT108_BT107_7_3_1,Length=0.032215000,Units=km
new line.1706201 bus1=BBT1944411.1.2.3.0,bus2=BBT1944418.1.2.3.0,Phases=3,Linecode=BT108_BT107_7_3_1,Length=0.038434000,Units=km
new line.1706208 bus1=BBT1944418.1.2.3.0,bus2=BBT1944425.1.2.3.0,Phases=3,Linecode=BT108_BT107_7_3_1,Length=0.035397000,Units=km
new line.1706215 bus1=BBT1944446.1.2.3.0,bus2=BBT1944439.1.2.3.0,Phases=3,Linecode=BT108_BT107_7_3_1,Length=0.038199000,Units=km
new line.1706222 bus1=BBT1944453.1.2.3.0,bus2=BBT1944446.1.2.3.0,Phases=3,Linecode=BT108_BT107_7_3_1,Length=0.038913000,Units=km
new line.1706229 bus1=BBT1944460.1.2.3.0,bus2=BBT1944453.1.2.3.0,Phases=3,Linecode=BT108_BT107_7_3_1,Length=0.039613000,Units=km
new line.1706236 bus1=BBT1944467.1.2.3.0,bus2=BBT1944460.1.2.3.0,Phases=3,Linecode=BT108_BT107_7_3_1,Length=0.038303000,Units=km
new line.1706243 bus1=BBT1944474.1.2.3.0,bus2=BBT1944467.1.2.3.0,Phases=3,Linecode=BT108_BT107_7_3_1,Length=0.038094000,Units=km
new line.1706250 bus1=BBT1944432.1.2.3.0,bus2=BBT1944474.1.2.3.0,Phases=3,Linecode=BT518_BT518_7_3_1,Length=0.000501000,Units=km
new line.1706257 bus1=BBT1944474.1.2.3.0,bus2=BBT1944481.1.2.3.0,Phases=3,Linecode=BT108_BT107_7_3_1,Length=0.039576000,Units=km
new line.1706264 bus1=BBT1944481.1.2.3.0,bus2=BBT1944488.1.2.3.0,Phases=3,Linecode=BT108_BT107_7_3_1,Length=0.040513000,Units=km
new line.1706271 bus1=BBT1944488.1.2.3.0,bus2=BBT1944495.1.2.3.0,Phases=3,Linecode=BT108_BT108_7_3_1,Length=0.038499000,Units=km
new line.1706278 bus1=BBT1944495.1.2.3.0,bus2=BBT1944509.1.2.3.0,Phases=3,Linecode=BT108_BT108_7_3_1,Length=0.038642000,Units=km
new line.1706285 bus1=BBT1944509.1.2.3.0,bus2=BBT1944516.1.2.3.0,Phases=3,Linecode=BT108_BT108_7_3_1,Length=0.040513000,Units=km
new line.1706292 bus1=BBT1944516.1.2.3.0,bus2=BBT1944502.1.2.3.0,Phases=3,Linecode=BT809_BT809_4_3_4,Length=0.025010000,Units=km
new line.1706313 bus1=BBT1944537.1.2.3.0,bus2=BBT2928303.1.2.3.0,Phases=3,Linecode=BT810_BT810_4_3_4,Length=0.006327000,Units=km
new line.1706320 bus1=BBT1944551.1.2.3.0,bus2=BBT2928464.1.2.3.0,Phases=3,Linecode=BT810_BT810_4_3_4,Length=0.023269000,Units=km
new line.1706327 bus1=BBT1944558.1.2.3.0,bus2=BBT1944530.1.2.3.0,Phases=3,Linecode=BT810_BT810_4_3_4,Length=0.029979000,Units=km
new line.1706334 bus1=BBT1944558.1.2.3.0,bus2=BBT1944551.1.2.3.0,Phases=3,Linecode=BT810_BT810_4_3_4,Length=0.019731000,Units=km
new line.1706341 bus1=BBT1944558.1.2.3.0,bus2=BBT1944565.1.2.3.0,Phases=3,Linecode=BT810_BT810_4_3_4,Length=0.007283000,Units=km
new line.1706348 bus1=BBT1944572.1.2.3.0,bus2=BBT1944558.1.2.3.0,Phases=3,Linecode=BT810_BT810_4_3_4,Length=0.006711000,Units=km
...